
     RDKit          3D

 77 84  0  0  0  0  0  0  0  0999 V2000
   79.5011  122.1851    0.0000 C   0  0  0  0  0  0  0  0  0  0  0  0
  116.8974  134.4322    0.0000 C   0  0  0  0  0  0  0  0  0  0  0  0
  124.9893  172.9419    0.0000 C   0  0  0  0  0  0  0  0  0  0  0  0
  162.3856  185.1890    0.0000 C   0  0  0  0  0  0  0  0  0  0  0  0
  191.6901  158.9264    0.0000 C   0  0  0  0  0  0  0  0  0  0  0  0
  183.5982  120.4167    0.0000 C   0  0  0  0  0  0  0  0  0  0  0  0
  146.2019  108.1696    0.0000 O   0  0  0  0  0  0  0  0  0  0  0  0
  201.8061   85.5319    0.0000 O   0  0  0  0  0  0  0  0  0  0  0  0
  213.4924   47.9565    0.0000 C   0  0  0  0  0  0  0  0  0  0  0  0
  218.2816    8.8983    0.0000 C   0  0  0  0  0  0  0  0  0  0  0  0
  216.0197  -30.3873    0.0000 O   0  0  0  0  0  0  0  0  0  0  0  0
  206.7794  -68.6377    0.0000 C   0  0  0  0  0  0  0  0  0  0  0  0
  209.7083  -17.7673    0.0000 C   0  0  0  0  0  0  0  0  0  0  0  0
  210.5635   -2.9140    0.0000 C   0  0  0  0  0  0  0  0  0  0  0  0
  165.3274   15.4804    0.0000 O   0  0  0  0  0  0  0  0  0  0  0  0
  162.6600  -30.8483    0.0000 O   0  0  0  0  0  0  0  0  0  0  0  0
  190.8577 -104.6235    0.0000 O   0  0  0  0  0  0  0  0  0  0  0  0
  168.7664 -137.1881    0.0000 C   0  0  0  0  0  0  0  0  0  0  0  0
  141.2155 -165.2848    0.0000 C   0  0  0  0  0  0  0  0  0  0  0  0
  109.0905 -188.0106    0.0000 O   0  0  0  0  0  0  0  0  0  0  0  0
   73.4239 -204.6350    0.0000 C   0  0  0  0  0  0  0  0  0  0  0  0
  100.9748 -176.5383    0.0000 C   0  0  0  0  0  0  0  0  0  0  0  0
  133.0998 -153.8125    0.0000 C   0  0  0  0  0  0  0  0  0  0  0  0
  113.3452 -119.7797    0.0000 O   0  0  0  0  0  0  0  0  0  0  0  0
   75.4609 -146.5797    0.0000 O   0  0  0  0  0  0  0  0  0  0  0  0
   35.3621 -214.6237    0.0000 O   0  0  0  0  0  0  0  0  0  0  0  0
   -3.8716 -217.6557    0.0000 C   0  0  0  0  0  0  0  0  0  0  0  0
  -43.0162 -213.6335    0.0000 C   0  0  0  0  0  0  0  0  0  0  0  0
  -80.8136 -202.6865    0.0000 O   0  0  0  0  0  0  0  0  0  0  0  0
 -116.0488 -185.1664    0.0000 C   0  0  0  0  0  0  0  0  0  0  0  0
  -76.9042 -189.1885    0.0000 C   0  0  0  0  0  0  0  0  0  0  0  0
  -39.1069 -200.1356    0.0000 C   0  0  0  0  0  0  0  0  0  0  0  0
  -24.8158 -163.4717    0.0000 O   0  0  0  0  0  0  0  0  0  0  0  0
  -69.3894 -150.5621    0.0000 O   0  0  0  0  0  0  0  0  0  0  0  0
 -147.5895 -161.6363    0.0000 O   0  0  0  0  0  0  0  0  0  0  0  0
 -174.4218 -132.8526    0.0000 C   0  0  0  0  0  0  0  0  0  0  0  0
 -195.6834  -99.7403    0.0000 C   0  0  0  0  0  0  0  0  0  0  0  0
 -210.6909  -63.3638    0.0000 O   0  0  0  0  0  0  0  0  0  0  0  0
 -218.9619  -24.8921    0.0000 C   0  0  0  0  0  0  0  0  0  0  0  0
 -197.7004  -58.0044    0.0000 C   0  0  0  0  0  0  0  0  0  0  0  0
 -182.6929  -94.3809    0.0000 C   0  0  0  0  0  0  0  0  0  0  0  0
 -145.1175  -82.6946    0.0000 O   0  0  0  0  0  0  0  0  0  0  0  0
 -162.8155  -39.7965    0.0000 O   0  0  0  0  0  0  0  0  0  0  0  0
 -220.2307   14.4381    0.0000 O   0  0  0  0  0  0  0  0  0  0  0  0
 -214.4564   53.3628    0.0000 C   0  0  0  0  0  0  0  0  0  0  0  0
 -201.8245   90.6310    0.0000 C   0  0  0  0  0  0  0  0  0  0  0  0
 -182.7412  125.0447    0.0000 O   0  0  0  0  0  0  0  0  0  0  0  0
 -157.8198  155.4979    0.0000 C   0  0  0  0  0  0  0  0  0  0  0  0
 -170.4516  118.2298    0.0000 C   0  0  0  0  0  0  0  0  0  0  0  0
 -189.5349   83.8161    0.0000 C   0  0  0  0  0  0  0  0  0  0  0  0
 -156.9703   61.7248    0.0000 O   0  0  0  0  0  0  0  0  0  0  0  0
 -134.4658  102.3081    0.0000 O   0  0  0  0  0  0  0  0  0  0  0  0
 -127.8612  181.0119    0.0000 O   0  0  0  0  0  0  0  0  0  0  0  0
  -93.8284  200.7665    0.0000 C   0  0  0  0  0  0  0  0  0  0  0  0
  -56.8152  214.1268    0.0000 C   0  0  0  0  0  0  0  0  0  0  0  0
  -18.0112  220.6635    0.0000 O   0  0  0  0  0  0  0  0  0  0  0  0
   21.3363  220.1664    0.0000 C   0  0  0  0  0  0  0  0  0  0  0  0
   59.9628  212.6516    0.0000 O   0  0  0  0  0  0  0  0  0  0  0  0
  -15.6769  206.8061    0.0000 C   0  0  0  0  0  0  0  0  0  0  0  0
  -54.4809  200.2694    0.0000 C   0  0  0  0  0  0  0  0  0  0  0  0
  -51.4489  161.0357    0.0000 O   0  0  0  0  0  0  0  0  0  0  0  0
   -5.6881  168.7443    0.0000 O   0  0  0  0  0  0  0  0  0  0  0  0
  -66.8039  252.1887    0.0000 C   0  0  0  0  0  0  0  0  0  0  0  0
  -38.8358  279.8701    0.0000 O   0  0  0  0  0  0  0  0  0  0  0  0
 -237.8103  106.5526    0.0000 C   0  0  0  0  0  0  0  0  0  0  0  0
 -242.0147  145.6781    0.0000 O   0  0  0  0  0  0  0  0  0  0  0  0
 -230.5683 -117.9482    0.0000 C   0  0  0  0  0  0  0  0  0  0  0  0
 -263.7791  -96.8409    0.0000 O   0  0  0  0  0  0  0  0  0  0  0  0
  -50.5311 -252.2600    0.0000 C   0  0  0  0  0  0  0  0  0  0  0  0
  -87.7400 -265.0652    0.0000 O   0  0  0  0  0  0  0  0  0  0  0  0
  166.7295 -195.2434    0.0000 C   0  0  0  0  0  0  0  0  0  0  0  0
  153.5415 -232.3184    0.0000 O   0  0  0  0  0  0  0  0  0  0  0  0
  257.6118   10.1671    0.0000 C   0  0  0  0  0  0  0  0  0  0  0  0
  278.3757  -23.2596    0.0000 O   0  0  0  0  0  0  0  0  0  0  0  0
  229.0864  171.1735    0.0000 O   0  0  0  0  0  0  0  0  0  0  0  0
  170.4775  223.6988    0.0000 O   0  0  0  0  0  0  0  0  0  0  0  0
   71.4092   83.6754    0.0000 O   0  0  0  0  0  0  0  0  0  0  0  0
  2  1  1  6
  3  2  1  1
  3  4  1  0
  4  5  1  0
  5  6  1  0
  6  7  1  1
  6  8  1  0
  8  9  1  0
  9 10  1  0
 10 11  1  0
 11 12  1  0
 12 13  1  1
 13 14  1  0
 14 15  1  6
 13 16  1  1
 12 17  1  0
 17 18  1  0
 18 19  1  0
 19 20  1  0
 20 21  1  0
 21 22  1  1
 22 23  1  0
 23 24  1  1
 22 25  1  6
 21 26  1  0
 26 27  1  0
 27 28  1  0
 28 29  1  0
 29 30  1  0
 30 31  1  1
 31 32  1  0
 32 33  1  1
 31 34  1  6
 30 35  1  0
 35 36  1  0
 36 37  1  0
 37 38  1  0
 38 39  1  0
 39 40  1  1
 40 41  1  0
 41 42  1  1
 40 43  1  6
 39 44  1  0
 44 45  1  0
 45 46  1  0
 46 47  1  0
 47 48  1  0
 48 49  1  1
 49 50  1  0
 50 51  1  1
 49 52  1  6
 48 53  1  0
 53 54  1  0
 54 55  1  0
 55 56  1  0
 56 57  1  0
 57 58  1  0
 57 59  1  1
 59 60  1  0
 60 61  1  1
 59 62  1  6
 55 63  1  1
 63 64  1  0
 46 65  1  1
 65 66  1  0
 37 67  1  1
 67 68  1  0
 28 69  1  1
 69 70  1  0
 19 71  1  1
 71 72  1  0
 10 73  1  1
 73 74  1  0
  5 75  1  1
  4 76  1  6
  1 77  1  0
  7  2  1  0
 58  3  1  0
  9 14  1  1
 18 23  1  1
 27 32  1  1
 36 41  1  1
 45 50  1  1
 54 60  1  1
M  END
