
     RDKit          3D

 77 84  0  0  0  0  0  0  0  0999 V2000
  -51.7690  -45.6421    0.0000 C   0  0  0  0  0  0  0  0  0  0  0  0
  -84.4430  -65.6215    0.0000 C   0  0  0  0  0  0  0  0  0  0  0  0
  -83.2187 -103.9886    0.0000 C   0  0  0  0  0  0  0  0  0  0  0  0
 -116.0610 -123.9144    0.0000 C   0  0  0  0  0  0  0  0  0  0  0  0
 -150.0206 -105.6414    0.0000 C   0  0  0  0  0  0  0  0  0  0  0  0
 -151.0613  -67.2896    0.0000 C   0  0  0  0  0  0  0  0  0  0  0  0
 -118.3337  -47.1495    0.0000 O   0  0  0  0  0  0  0  0  0  0  0  0
 -187.3624  -48.6417    0.0000 O   0  0  0  0  0  0  0  0  0  0  0  0
 -187.3624  -11.0091    0.0000 C   0  0  0  0  0  0  0  0  0  0  0  0
 -218.6055   11.1893    0.0000 C   0  0  0  0  0  0  0  0  0  0  0  0
 -214.8484   49.2733    0.0000 O   0  0  0  0  0  0  0  0  0  0  0  0
 -179.9858   65.1283    0.0000 C   0  0  0  0  0  0  0  0  0  0  0  0
 -148.8499   42.7002    0.0000 C   0  0  0  0  0  0  0  0  0  0  0  0
 -152.5305    4.7157    0.0000 C   0  0  0  0  0  0  0  0  0  0  0  0
 -121.3868  -16.6716    0.0000 O   0  0  0  0  0  0  0  0  0  0  0  0
 -113.4441   51.4082    0.0000 O   0  0  0  0  0  0  0  0  0  0  0  0
 -179.0676  102.2481    0.0000 O   0  0  0  0  0  0  0  0  0  0  0  0
 -148.5438  122.3040    0.0000 C   0  0  0  0  0  0  0  0  0  0  0  0
 -113.6277  106.5791    0.0000 C   0  0  0  0  0  0  0  0  0  0  0  0
  -82.6830  128.9536    0.0000 O   0  0  0  0  0  0  0  0  0  0  0  0
  -86.4861  166.9304    0.0000 C   0  0  0  0  0  0  0  0  0  0  0  0
 -121.4098  182.5864    0.0000 C   0  0  0  0  0  0  0  0  0  0  0  0
 -152.4846  160.3268    0.0000 C   0  0  0  0  0  0  0  0  0  0  0  0
 -187.3012  176.0899    0.0000 O   0  0  0  0  0  0  0  0  0  0  0  0
 -125.1516  220.7010    0.0000 O   0  0  0  0  0  0  0  0  0  0  0  0
  -53.1693  187.8663    0.0000 O   0  0  0  0  0  0  0  0  0  0  0  0
  -19.2020  166.9764    0.0000 C   0  0  0  0  0  0  0  0  0  0  0  0
   15.2320  183.6654    0.0000 C   0  0  0  0  0  0  0  0  0  0  0  0
   46.9801  162.3546    0.0000 O   0  0  0  0  0  0  0  0  0  0  0  0
   44.2560  124.2859    0.0000 C   0  0  0  0  0  0  0  0  0  0  0  0
    9.7455  107.5127    0.0000 C   0  0  0  0  0  0  0  0  0  0  0  0
  -21.8726  128.9230    0.0000 C   0  0  0  0  0  0  0  0  0  0  0  0
  -56.2989  112.1345    0.0000 O   0  0  0  0  0  0  0  0  0  0  0  0
    2.5220   68.7017    0.0000 O   0  0  0  0  0  0  0  0  0  0  0  0
   81.7355  104.5513    0.0000 O   0  0  0  0  0  0  0  0  0  0  0  0
   85.2860   67.2096    0.0000 C   0  0  0  0  0  0  0  0  0  0  0  0
  118.3732   48.2479    0.0000 C   0  0  0  0  0  0  0  0  0  0  0  0
  118.4268   10.1180    0.0000 O   0  0  0  0  0  0  0  0  0  0  0  0
   85.3549   -9.0043    0.0000 C   0  0  0  0  0  0  0  0  0  0  0  0
   52.2600    9.9038    0.0000 C   0  0  0  0  0  0  0  0  0  0  0  0
   52.3212   48.2479    0.0000 C   0  0  0  0  0  0  0  0  0  0  0  0
   33.0917   66.0465    0.0000 O   0  0  0  0  0  0  0  0  0  0  0  0
   19.1498   -9.2109    0.0000 O   0  0  0  0  0  0  0  0  0  0  0  0
   85.9288  -39.7960    0.0000 O   0  0  0  0  0  0  0  0  0  0  0  0
  116.6209  -57.1048    0.0000 C   0  0  0  0  0  0  0  0  0  0  0  0
  110.5146  -94.4465    0.0000 C   0  0  0  0  0  0  0  0  0  0  0  0
  139.8447 -118.1907    0.0000 O   0  0  0  0  0  0  0  0  0  0  0  0
  175.9775 -104.7232    0.0000 C   0  0  0  0  0  0  0  0  0  0  0  0
  181.9078  -67.2360    0.0000 C   0  0  0  0  0  0  0  0  0  0  0  0
  152.2716  -43.3235    0.0000 C   0  0  0  0  0  0  0  0  0  0  0  0
  157.7275   -5.5150    0.0000 O   0  0  0  0  0  0  0  0  0  0  0  0
  217.4896  -53.0569    0.0000 O   0  0  0  0  0  0  0  0  0  0  0  0
  216.8162 -132.0102    0.0000 O   0  0  0  0  0  0  0  0  0  0  0  0
  206.3559 -162.4498    0.0000 C   0  0  0  0  0  0  0  0  0  0  0  0
  169.3738 -154.0097    0.0000 C   0  0  0  0  0  0  0  0  0  0  0  0
  142.9744 -181.9319    0.0000 O   0  0  0  0  0  0  0  0  0  0  0  0
  153.0368 -217.4142    0.0000 C   0  0  0  0  0  0  0  0  0  0  0  0
    7.4346 -168.0511    0.0000 O   0  0  0  0  0  0  0  0  0  0  0  0
  191.1744 -226.5277    0.0000 C   0  0  0  0  0  0  0  0  0  0  0  0
  217.4513 -198.6438    0.0000 C   0  0  0  0  0  0  0  0  0  0  0  0
  256.4077 -206.6708    0.0000 O   0  0  0  0  0  0  0  0  0  0  0  0
  214.2758 -262.8135    0.0000 O   0  0  0  0  0  0  0  0  0  0  0  0
  161.0637 -141.1773    0.0000 C   0  0  0  0  0  0  0  0  0  0  0  0
  124.2500 -157.3383    0.0000 O   0  0  0  0  0  0  0  0  0  0  0  0
   75.1242 -109.8271    0.0000 C   0  0  0  0  0  0  0  0  0  0  0  0
   44.0953  -88.2484    0.0000 O   0  0  0  0  0  0  0  0  0  0  0  0
  151.4681   67.3856    0.0000 C   0  0  0  0  0  0  0  0  0  0  0  0
  184.6243   48.3015    0.0000 O   0  0  0  0  0  0  0  0  0  0  0  0
   17.6882  221.9407    0.0000 C   0  0  0  0  0  0  0  0  0  0  0  0
   51.8621  239.0199    0.0000 O   0  0  0  0  0  0  0  0  0  0  0  0
 -105.8227   80.9755    0.0000 C   0  0  0  0  0  0  0  0  0  0  0  0
  -67.6775   81.8708    0.0000 O   0  0  0  0  0  0  0  0  0  0  0  0
 -253.3456   -4.8569    0.0000 C   0  0  0  0  0  0  0  0  0  0  0  0
 -284.6575   17.0431    0.0000 O   0  0  0  0  0  0  0  0  0  0  0  0
 -182.5952 -125.6437    0.0000 O   0  0  0  0  0  0  0  0  0  0  0  0
 -115.1275 -162.1897    0.0000 O   0  0  0  0  0  0  0  0  0  0  0  0
  -52.6872   -7.4357    0.0000 O   0  0  0  0  0  0  0  0  0  0  0  0
  2  1  1  6
  3  2  1  1
  3  4  1  0
  4  5  1  0
  5  6  1  0
  6  7  1  1
  6  8  1  0
  8  9  1  0
  9 10  1  0
 10 11  1  0
 11 12  1  0
 12 13  1  6
 13 14  1  0
 14 15  1  1
 13 16  1  6
 12 17  1  0
 17 18  1  0
 18 19  1  0
 19 20  1  0
 20 21  1  0
 21 22  1  1
 22 23  1  0
 23 24  1  6
 22 25  1  1
 21 26  1  0
 26 27  1  0
 27 28  1  0
 28 29  1  0
 29 30  1  0
 30 31  1  6
 31 32  1  0
 32 33  1  1
 31 34  1  6
 30 35  1  0
 35 36  1  0
 36 37  1  0
 37 38  1  0
 38 39  1  0
 39 40  1  6
 40 41  1  0
 41 42  1  1
 40 43  1  6
 39 44  1  0
 44 45  1  0
 45 46  1  0
 46 47  1  0
 47 48  1  0
 48 49  1  1
 49 50  1  0
 50 51  1  6
 49 52  1  1
 48 53  1  0
 53 54  1  0
 54 55  1  0
 55 56  1  0
 56 57  1  0
 57 58  1  0
 57 59  1  1
 59 60  1  0
 60 61  1  6
 59 62  1  1
 55 63  1  6
 63 64  1  0
 46 65  1  6
 65 66  1  0
 37 67  1  1
 67 68  1  0
 28 69  1  1
 69 70  1  0
 19 71  1  6
 71 72  1  0
 10 73  1  1
 73 74  1  0
  5 75  1  1
  4 76  1  6
  1 77  1  0
  7  2  1  0
 58  3  1  0
  9 14  1  6
 18 23  1  1
 27 32  1  6
 36 41  1  6
 45 50  1  1
 54 60  1  1
M  END
