
     RDKit          3D

 40 46  0  0  0  0  0  0  0  0999 V2000
   -5.1142  176.8698    0.0000 C   0  0  0  0  0  0  0  0  0  0  0  0
   65.8095  153.5500    0.0000 C   0  0  0  0  0  0  0  0  0  0  0  0
   64.8538  114.2881    0.0000 C   0  0  0  0  0  0  0  0  0  0  0  0
   98.3778   93.8295    0.0000 C   0  0  0  0  0  0  0  0  0  0  0  0
  132.8575  112.6328    0.0000 C   0  0  0  0  0  0  0  0  0  0  0  0
  154.1849   79.6547    0.0000 C   0  0  0  0  0  0  0  0  0  0  0  0
  167.6393   42.7577    0.0000 N   0  0  0  0  0  0  0  0  0  0  0  0
  172.5460    3.7919    0.0000 C   0  0  0  0  0  0  0  0  0  0  0  0
  168.6590  -35.2889    0.0000 C   0  0  0  0  0  0  0  0  0  0  0  0
  156.1731  -72.5248    0.0000 C   0  0  0  0  0  0  0  0  0  0  0  0
  161.0290  -23.7037    0.0000 C   0  0  0  0  0  0  0  0  0  0  0  0
  162.7835   -6.0634    0.0000 C   0  0  0  0  0  0  0  0  0  0  0  0
  135.7145 -106.0488    0.0000 C   0  0  0  0  0  0  0  0  0  0  0  0
  108.3091 -134.1798    0.0000 C   0  0  0  0  0  0  0  0  0  0  0  0
   75.3310 -155.5073    0.0000 C   0  0  0  0  0  0  0  0  0  0  0  0
   38.4340 -168.9617    0.0000 N   0  0  0  0  0  0  0  0  0  0  0  0
   -0.5319 -173.8684    0.0000 C   0  0  0  0  0  0  0  0  0  0  0  0
  -39.6126 -169.9813    0.0000 C   0  0  0  0  0  0  0  0  0  0  0  0
  -76.8486 -157.4955    0.0000 C   0  0  0  0  0  0  0  0  0  0  0  0
 -110.3726 -137.0369    0.0000 C   0  0  0  0  0  0  0  0  0  0  0  0
 -138.5036 -109.6314    0.0000 C   0  0  0  0  0  0  0  0  0  0  0  0
 -159.8310  -76.6533    0.0000 C   0  0  0  0  0  0  0  0  0  0  0  0
 -173.2854  -39.7563    0.0000 N   0  0  0  0  0  0  0  0  0  0  0  0
 -178.1921   -0.7905    0.0000 C   0  0  0  0  0  0  0  0  0  0  0  0
 -174.3051   38.2903    0.0000 C   0  0  0  0  0  0  0  0  0  0  0  0
 -161.8192   75.5262    0.0000 C   0  0  0  0  0  0  0  0  0  0  0  0
 -156.9125   36.5604    0.0000 C   0  0  0  0  0  0  0  0  0  0  0  0
 -160.7995   -2.5204    0.0000 C   0  0  0  0  0  0  0  0  0  0  0  0
 -141.3606  109.0502    0.0000 C   0  0  0  0  0  0  0  0  0  0  0  0
 -113.9552  137.1812    0.0000 C   0  0  0  0  0  0  0  0  0  0  0  0
  -80.9771  158.5087    0.0000 C   0  0  0  0  0  0  0  0  0  0  0  0
  -44.0800  171.9631    0.0000 N   0  0  0  0  0  0  0  0  0  0  0  0
  -71.4855  143.8320    0.0000 C   0  0  0  0  0  0  0  0  0  0  0  0
 -104.4636  122.5046    0.0000 C   0  0  0  0  0  0  0  0  0  0  0  0
 -101.2676 -122.1173    0.0000 C   0  0  0  0  0  0  0  0  0  0  0  0
  -67.7436 -142.5759    0.0000 C   0  0  0  0  0  0  0  0  0  0  0  0
   65.8394 -140.8306    0.0000 C   0  0  0  0  0  0  0  0  0  0  0  0
   98.8175 -119.5032    0.0000 C   0  0  0  0  0  0  0  0  0  0  0  0
  133.8132  151.8948    0.0000 C   0  0  0  0  0  0  0  0  0  0  0  0
  100.2892  172.3533    0.0000 C   0  0  0  0  0  0  0  0  0  0  0  0
  1  2  1  0
  2  3  1  0
  3  4  2  0
  4  5  1  0
  5  6  1  0
  6  7  1  0
  7  8  2  0
  8  9  1  0
  9 10  2  0
 10 11  1  0
 11 12  2  0
 10 13  1  0
 13 14  1  0
 14 15  2  0
 15 16  1  0
 16 17  1  0
 17 18  1  0
 18 19  1  0
 19 20  2  0
 20 21  1  0
 21 22  1  0
 22 23  1  0
 23 24  1  0
 24 25  2  0
 25 26  1  0
 26 27  2  0
 27 28  1  0
 26 29  1  0
 29 30  2  0
 30 31  1  0
 31 32  2  0
 32 33  1  0
 33 34  2  0
 21 35  2  0
 35 36  1  0
 16 37  2  0
 37 38  1  0
  5 39  2  0
 39 40  1  0
 32  1  1  0
 40  2  2  0
 12  7  1  0
 38 13  2  0
 36 18  2  0
 28 23  2  0
 34 29  1  0
M  CHG  4   7   1  16   1  23   1  32   1
M  END
