
     RDKit          3D

 40 46  0  0  0  0  0  0  0  0999 V2000
 -164.7878   13.6586    0.0000 C   0  0  0  0  0  0  0  0  0  0  0  0
 -164.7123  -24.3291    0.0000 C   0  0  0  0  0  0  0  0  0  0  0  0
 -191.7795  -50.8526    0.0000 C   0  0  0  0  0  0  0  0  0  0  0  0
 -182.0220  -87.5640    0.0000 C   0  0  0  0  0  0  0  0  0  0  0  0
 -145.2502  -97.5178    0.0000 C   0  0  0  0  0  0  0  0  0  0  0  0
 -100.4730 -154.8543    0.0000 C   0  0  0  0  0  0  0  0  0  0  0  0
   -8.9475 -150.6553    0.0000 N   0  0  0  0  0  0  0  0  0  0  0  0
   -4.7636 -113.3246    0.0000 C   0  0  0  0  0  0  0  0  0  0  0  0
   29.8559  -98.0087    0.0000 C   0  0  0  0  0  0  0  0  0  0  0  0
   60.6010 -119.9026    0.0000 C   0  0  0  0  0  0  0  0  0  0  0  0
   56.7418 -157.7242    0.0000 C   0  0  0  0  0  0  0  0  0  0  0  0
   21.8580 -173.2893    0.0000 C   0  0  0  0  0  0  0  0  0  0  0  0
   91.2328  -82.2698    0.0000 C   0  0  0  0  0  0  0  0  0  0  0  0
   72.3749  -49.4630    0.0000 C   0  0  0  0  0  0  0  0  0  0  0  0
   91.3461  -16.7996    0.0000 C   0  0  0  0  0  0  0  0  0  0  0  0
  129.0695  -16.7920    0.0000 N   0  0  0  0  0  0  0  0  0  0  0  0
  148.0030   15.7883    0.0000 C   0  0  0  0  0  0  0  0  0  0  0  0
  129.1601   48.5046    0.0000 C   0  0  0  0  0  0  0  0  0  0  0  0
   91.5047   48.6103    0.0000 C   0  0  0  0  0  0  0  0  0  0  0  0
   72.6468   81.3492    0.0000 C   0  0  0  0  0  0  0  0  0  0  0  0
   91.7464  113.9975    0.0000 C   0  0  0  0  0  0  0  0  0  0  0  0
   71.5291  142.1447    0.0000 C   0  0  0  0  0  0  0  0  0  0  0  0
   39.8928  127.9994    0.0000 N   0  0  0  0  0  0  0  0  0  0  0  0
   39.9532   90.1778    0.0000 C   0  0  0  0  0  0  0  0  0  0  0  0
    7.1841   71.3878    0.0000 C   0  0  0  0  0  0  0  0  0  0  0  0
  -25.4114   90.2609    0.0000 C   0  0  0  0  0  0  0  0  0  0  0  0
  -25.4189  128.0220    0.0000 C   0  0  0  0  0  0  0  0  0  0  0  0
    7.2822  146.8497    0.0000 C   0  0  0  0  0  0  0  0  0  0  0  0
  -58.2107   71.5238    0.0000 C   0  0  0  0  0  0  0  0  0  0  0  0
  -58.2107   33.8230    0.0000 C   0  0  0  0  0  0  0  0  0  0  0  0
  -91.0931   14.9878    0.0000 C   0  0  0  0  0  0  0  0  0  0  0  0
 -123.7112   34.0723    0.0000 N   0  0  0  0  0  0  0  0  0  0  0  0
 -123.6508   71.7579    0.0000 C   0  0  0  0  0  0  0  0  0  0  0  0
  -90.8439   90.5479    0.0000 C   0  0  0  0  0  0  0  0  0  0  0  0
  129.4094  113.8616    0.0000 C   0  0  0  0  0  0  0  0  0  0  0  0
  148.1842   81.1227    0.0000 C   0  0  0  0  0  0  0  0  0  0  0  0
  147.9350  -49.6291    0.0000 C   0  0  0  0  0  0  0  0  0  0  0  0
  128.9260  -82.2397    0.0000 C   0  0  0  0  0  0  0  0  0  0  0  0
 -118.7947  -70.8584    0.0000 C   0  0  0  0  0  0  0  0  0  0  0  0
 -128.3558  -34.3736    0.0000 C   0  0  0  0  0  0  0  0  0  0  0  0
  1  2  1  0
  2  3  1  0
  3  4  2  0
  4  5  1  0
  5  6  1  0
  6  7  1  0
  7  8  2  0
  8  9  1  0
  9 10  2  0
 10 11  1  0
 11 12  2  0
 10 13  1  0
 13 14  1  0
 14 15  2  0
 15 16  1  0
 16 17  1  0
 17 18  1  0
 18 19  1  0
 19 20  2  0
 20 21  1  0
 21 22  1  0
 22 23  1  0
 23 24  1  0
 24 25  2  0
 25 26  1  0
 26 27  2  0
 27 28  1  0
 26 29  1  0
 29 30  2  0
 30 31  1  0
 31 32  2  0
 32 33  1  0
 33 34  2  0
 21 35  2  0
 35 36  1  0
 16 37  2  0
 37 38  1  0
  5 39  2  0
 39 40  1  0
 32  1  1  0
 40  2  2  0
 12  7  1  0
 38 13  2  0
 36 18  2  0
 28 23  2  0
 34 29  1  0
M  CHG  4   7   1  16   1  23   1  32   1
M  END
