
     RDKit          3D

 84105  0  0  0  0  0  0  0  0999 V2000
  -31.5453  -18.1641    0.0000 C   0  0  0  0  0  0  0  0  0  0  0  0
  -57.0121  -28.2045    0.0000 N   0  0  0  0  0  0  0  0  0  0  0  0
  -84.6915  -17.5257    0.0000 C   0  0  0  0  0  0  0  0  0  0  0  0
 -102.5722  -39.4660    0.0000 C   0  0  0  0  0  0  0  0  0  0  0  0
  -86.3587  -64.4121    0.0000 N   0  0  0  0  0  0  0  0  0  0  0  0
  -58.1711  -57.4210    0.0000 C   0  0  0  0  0  0  0  0  0  0  0  0
  -38.9145  -47.5169    0.0000 O   0  0  0  0  0  0  0  0  0  0  0  0
  -90.2634  -91.1495    0.0000 C   0  0  0  0  0  0  0  0  0  0  0  0
 -111.5280 -107.6543    0.0000 N   0  0  0  0  0  0  0  0  0  0  0  0
 -139.2570 -104.0223    0.0000 C   0  0  0  0  0  0  0  0  0  0  0  0
 -152.7807 -128.6400    0.0000 C   0  0  0  0  0  0  0  0  0  0  0  0
 -129.1360 -157.8317    0.0000 N   0  0  0  0  0  0  0  0  0  0  0  0
 -102.9007 -144.6676    0.0000 C   0  0  0  0  0  0  0  0  0  0  0  0
  -75.6365 -158.5507    0.0000 O   0  0  0  0  0  0  0  0  0  0  0  0
 -134.8690 -178.5076    0.0000 C   0  0  0  0  0  0  0  0  0  0  0  0
 -159.2760 -189.5211    0.0000 N   0  0  0  0  0  0  0  0  0  0  0  0
 -197.3305 -182.3007    0.0000 C   0  0  0  0  0  0  0  0  0  0  0  0
 -205.9517 -205.3193    0.0000 C   0  0  0  0  0  0  0  0  0  0  0  0
 -176.3757 -225.6792    0.0000 N   0  0  0  0  0  0  0  0  0  0  0  0
 -154.2124 -212.9303    0.0000 C   0  0  0  0  0  0  0  0  0  0  0  0
 -136.3379 -207.1601    0.0000 O   0  0  0  0  0  0  0  0  0  0  0  0
 -152.8055 -250.8670    0.0000 C   0  0  0  0  0  0  0  0  0  0  0  0
  289.6438   92.4916    0.0000 N   0  0  0  0  0  0  0  0  0  0  0  0
  280.4896  123.0716    0.0000 C   0  0  0  0  0  0  0  0  0  0  0  0
  252.0169  117.0597    0.0000 C   0  0  0  0  0  0  0  0  0  0  0  0
  246.5380   88.3019    0.0000 N   0  0  0  0  0  0  0  0  0  0  0  0
  269.0485   74.4994    0.0000 C   0  0  0  0  0  0  0  0  0  0  0  0
  273.0151   44.8243    0.0000 O   0  0  0  0  0  0  0  0  0  0  0  0
  224.6350   72.1256    0.0000 C   0  0  0  0  0  0  0  0  0  0  0  0
  199.7508   77.7842    0.0000 N   0  0  0  0  0  0  0  0  0  0  0  0
  182.6076  110.5210    0.0000 C   0  0  0  0  0  0  0  0  0  0  0  0
  154.5749  107.8250    0.0000 C   0  0  0  0  0  0  0  0  0  0  0  0
  147.6458   81.5401    0.0000 N   0  0  0  0  0  0  0  0  0  0  0  0
  177.6990   59.6680    0.0000 C   0  0  0  0  0  0  0  0  0  0  0  0
  176.7693   36.1597    0.0000 O   0  0  0  0  0  0  0  0  0  0  0  0
  125.9906   68.4131    0.0000 C   0  0  0  0  0  0  0  0  0  0  0  0
  101.0692   73.9973    0.0000 N   0  0  0  0  0  0  0  0  0  0  0  0
   83.3745   97.5490    0.0000 C   0  0  0  0  0  0  0  0  0  0  0  0
   57.1578   88.1345    0.0000 C   0  0  0  0  0  0  0  0  0  0  0  0
   58.6018   58.5090    0.0000 N   0  0  0  0  0  0  0  0  0  0  0  0
   85.6863   50.2535    0.0000 C   0  0  0  0  0  0  0  0  0  0  0  0
   69.3736   32.1993    0.0000 O   0  0  0  0  0  0  0  0  0  0  0  0
   42.3264   37.9199    0.0000 C   0  0  0  0  0  0  0  0  0  0  0  0
   16.5249   35.0627    0.0000 N   0  0  0  0  0  0  0  0  0  0  0  0
   -7.4172   52.2864    0.0000 C   0  0  0  0  0  0  0  0  0  0  0  0
  -30.3119   35.2053    0.0000 C   0  0  0  0  0  0  0  0  0  0  0  0
  -20.6310    6.9866    0.0000 N   0  0  0  0  0  0  0  0  0  0  0  0
    8.2570    7.1168    0.0000 C   0  0  0  0  0  0  0  0  0  0  0  0
   18.1611   -5.4338    0.0000 O   0  0  0  0  0  0  0  0  0  0  0  0
  -56.4047   50.4643    0.0000 N   0  0  0  0  0  0  0  0  0  0  0  0
  -87.0095   39.4570    0.0000 C   0  0  0  0  0  0  0  0  0  0  0  0
  -99.0023    9.1683    0.0000 N   0  0  0  0  0  0  0  0  0  0  0  0
 -130.0781    1.3032    0.0000 C   0  0  0  0  0  0  0  0  0  0  0  0
 -154.3301   20.4297    0.0000 O   0  0  0  0  0  0  0  0  0  0  0  0
 -130.9520  -31.1733    0.0000 N   0  0  0  0  0  0  0  0  0  0  0  0
 -156.2328  -48.1615    0.0000 C   0  0  0  0  0  0  0  0  0  0  0  0
 -160.0259  -79.2683    0.0000 N   0  0  0  0  0  0  0  0  0  0  0  0
 -188.5730  -90.8768    0.0000 C   0  0  0  0  0  0  0  0  0  0  0  0
 -215.7814  -75.2025    0.0000 O   0  0  0  0  0  0  0  0  0  0  0  0
 -185.8336 -121.3948    0.0000 N   0  0  0  0  0  0  0  0  0  0  0  0
 -212.0379 -136.5856    0.0000 C   0  0  0  0  0  0  0  0  0  0  0  0
 -216.3826 -162.9263    0.0000 N   0  0  0  0  0  0  0  0  0  0  0  0
 -244.7128 -180.1996    0.0000 C   0  0  0  0  0  0  0  0  0  0  0  0
 -275.1750 -170.4629    0.0000 O   0  0  0  0  0  0  0  0  0  0  0  0
 -234.7467 -209.9615    0.0000 N   0  0  0  0  0  0  0  0  0  0  0  0
 -229.6335 -217.6840    0.0000 C   0  0  0  0  0  0  0  0  0  0  0  0
  276.5354  153.4843    0.0000 N   0  0  0  0  0  0  0  0  0  0  0  0
  249.8477  164.6775    0.0000 C   0  0  0  0  0  0  0  0  0  0  0  0
  243.9721  196.2058    0.0000 O   0  0  0  0  0  0  0  0  0  0  0  0
  234.0804  146.5737    0.0000 N   0  0  0  0  0  0  0  0  0  0  0  0
  209.6611  153.4657    0.0000 C   0  0  0  0  0  0  0  0  0  0  0  0
  188.6877  139.9854    0.0000 N   0  0  0  0  0  0  0  0  0  0  0  0
  162.0061  155.9014    0.0000 C   0  0  0  0  0  0  0  0  0  0  0  0
  159.4402  187.6962    0.0000 O   0  0  0  0  0  0  0  0  0  0  0  0
  140.2208  135.8825    0.0000 N   0  0  0  0  0  0  0  0  0  0  0  0
  110.0561  144.1008    0.0000 C   0  0  0  0  0  0  0  0  0  0  0  0
   85.1966  126.9266    0.0000 N   0  0  0  0  0  0  0  0  0  0  0  0
   54.3130  136.9919    0.0000 C   0  0  0  0  0  0  0  0  0  0  0  0
   44.3531  166.3819    0.0000 O   0  0  0  0  0  0  0  0  0  0  0  0
   36.6058  110.0314    0.0000 N   0  0  0  0  0  0  0  0  0  0  0  0
    4.6561  107.8436    0.0000 C   0  0  0  0  0  0  0  0  0  0  0  0
  -14.5137   81.8624    0.0000 N   0  0  0  0  0  0  0  0  0  0  0  0
  -47.2877   81.9367    0.0000 C   0  0  0  0  0  0  0  0  0  0  0  0
  -65.5899  106.5668    0.0000 O   0  0  0  0  0  0  0  0  0  0  0  0
  1  2  1  0
  2  3  1  0
  3  4  1  0
  4  5  1  0
  5  6  1  0
  6  7  2  0
  5  8  1  0
  8  9  1  0
  9 10  1  0
 10 11  1  0
 11 12  1  0
 12 13  1  0
 13 14  2  0
 12 15  1  0
 15 16  1  0
 16 17  1  0
 17 18  1  0
 18 19  1  0
 19 20  1  0
 20 21  2  0
 19 22  1  0
 22 23  1  0
 23 24  1  0
 24 25  1  0
 25 26  1  0
 26 27  1  0
 27 28  2  0
 26 29  1  0
 29 30  1  0
 30 31  1  0
 31 32  1  0
 32 33  1  0
 33 34  1  0
 34 35  2  0
 33 36  1  0
 36 37  1  0
 37 38  1  0
 38 39  1  0
 39 40  1  0
 40 41  1  0
 41 42  2  0
 40 43  1  0
 43 44  1  0
 44 45  1  0
 45 46  1  0
 46 47  1  0
 47 48  1  0
 48 49  2  0
 46 50  1  0
 50 51  1  0
 51 52  1  0
 52 53  1  0
 53 54  2  0
 53 55  1  0
 55 56  1  0
 56 57  1  0
 57 58  1  0
 58 59  2  0
 58 60  1  0
 60 61  1  0
 61 62  1  0
 62 63  1  0
 63 64  2  0
 63 65  1  0
 65 66  1  0
 66 67  1  0
 67 68  1  0
 68 69  2  0
 68 70  1  0
 70 71  1  0
 71 72  1  0
 72 73  1  0
 73 74  2  0
 73 75  1  0
 75 76  1  0
 76 77  1  0
 77 78  1  0
 78 79  2  0
 78 80  1  0
 80 81  1  0
 81 82  1  0
 82 83  1  0
 83 84  2  0
 47  1  1  0
 83 50  1  0
  6  2  1  0
 65 18  1  0
 52  3  1  0
 55  4  1  0
 13  9  1  0
 27 23  1  0
 34 30  1  0
 41 37  1  0
 48 44  1  0
 57 10  1  0
 60 11  1  0
 20 16  1  0
 67 24  1  0
 62 17  1  0
 70 25  1  0
 72 31  1  0
 75 32  1  0
 77 38  1  0
 80 39  1  0
 82 45  1  0
M  END
