
     RDKit          3D

 84105  0  0  0  0  0  0  0  0999 V2000
  235.1118  -58.8412    0.0000 C   0  0  0  0  0  0  0  0  0  0  0  0
  262.2586  -61.6322    0.0000 N   0  0  0  0  0  0  0  0  0  0  0  0
  281.3944  -41.4209    0.0000 C   0  0  0  0  0  0  0  0  0  0  0  0
  306.5298  -53.3745    0.0000 C   0  0  0  0  0  0  0  0  0  0  0  0
  302.9285  -80.9735    0.0000 N   0  0  0  0  0  0  0  0  0  0  0  0
  275.5674  -86.0771    0.0000 C   0  0  0  0  0  0  0  0  0  0  0  0
  263.6138 -111.2125    0.0000 O   0  0  0  0  0  0  0  0  0  0  0  0
 -268.5766  -42.7524    0.0000 C   0  0  0  0  0  0  0  0  0  0  0  0
 -294.7741  -52.1528    0.0000 N   0  0  0  0  0  0  0  0  0  0  0  0
 -297.7152  -24.4756    0.0000 C   0  0  0  0  0  0  0  0  0  0  0  0
 -272.3014  -13.1258    0.0000 C   0  0  0  0  0  0  0  0  0  0  0  0
 -253.6538  -33.7883    0.0000 N   0  0  0  0  0  0  0  0  0  0  0  0
 -267.5427  -57.9084    0.0000 C   0  0  0  0  0  0  0  0  0  0  0  0
 -256.1928  -83.3221    0.0000 O   0  0  0  0  0  0  0  0  0  0  0  0
 -225.8573  -35.2131    0.0000 C   0  0  0  0  0  0  0  0  0  0  0  0
 -205.1947  -16.5655    0.0000 N   0  0  0  0  0  0  0  0  0  0  0  0
 -203.7699   11.2310    0.0000 C   0  0  0  0  0  0  0  0  0  0  0  0
 -176.8936   18.4656    0.0000 C   0  0  0  0  0  0  0  0  0  0  0  0
 -161.7079   -4.8597    0.0000 N   0  0  0  0  0  0  0  0  0  0  0  0
 -179.1989  -26.5101    0.0000 C   0  0  0  0  0  0  0  0  0  0  0  0
 -171.9644  -53.3865    0.0000 O   0  0  0  0  0  0  0  0  0  0  0  0
 -134.4765  -10.6153    0.0000 C   0  0  0  0  0  0  0  0  0  0  0  0
 -111.1511    4.5704    0.0000 N   0  0  0  0  0  0  0  0  0  0  0  0
 -105.3956   31.8018    0.0000 C   0  0  0  0  0  0  0  0  0  0  0  0
  -77.7184   34.7429    0.0000 C   0  0  0  0  0  0  0  0  0  0  0  0
  -66.3685    9.3292    0.0000 N   0  0  0  0  0  0  0  0  0  0  0  0
  -87.0311   -9.3184    0.0000 C   0  0  0  0  0  0  0  0  0  0  0  0
  -84.0900  -36.9956    0.0000 O   0  0  0  0  0  0  0  0  0  0  0  0
  -40.3727   -0.6154    0.0000 C   0  0  0  0  0  0  0  0  0  0  0  0
  -14.9590   10.7344    0.0000 N   0  0  0  0  0  0  0  0  0  0  0  0
   -5.0144   36.7302    0.0000 C   0  0  0  0  0  0  0  0  0  0  0  0
   22.7822   35.3054    0.0000 C   0  0  0  0  0  0  0  0  0  0  0  0
   30.0167    8.4291    0.0000 N   0  0  0  0  0  0  0  0  0  0  0  0
    6.6914   -6.7566    0.0000 C   0  0  0  0  0  0  0  0  0  0  0  0
    5.2666  -34.5531    0.0000 O   0  0  0  0  0  0  0  0  0  0  0  0
   54.1368   -5.4598    0.0000 C   0  0  0  0  0  0  0  0  0  0  0  0
   81.0131    1.7748    0.0000 N   0  0  0  0  0  0  0  0  0  0  0  0
   94.9020   25.8948    0.0000 C   0  0  0  0  0  0  0  0  0  0  0  0
  122.1334   20.1393    0.0000 C   0  0  0  0  0  0  0  0  0  0  0  0
  125.0745   -7.5379    0.0000 N   0  0  0  0  0  0  0  0  0  0  0  0
   99.6608  -18.8878    0.0000 C   0  0  0  0  0  0  0  0  0  0  0  0
   93.9052  -46.1192    0.0000 O   0  0  0  0  0  0  0  0  0  0  0  0
  146.7249  -25.0290    0.0000 C   0  0  0  0  0  0  0  0  0  0  0  0
  174.4021  -22.0879    0.0000 N   0  0  0  0  0  0  0  0  0  0  0  0
  191.8931   -0.4375    0.0000 C   0  0  0  0  0  0  0  0  0  0  0  0
  217.8889  -10.3821    0.0000 C   0  0  0  0  0  0  0  0  0  0  0  0
  216.4641  -38.1786    0.0000 N   0  0  0  0  0  0  0  0  0  0  0  0
  189.5878  -45.4132    0.0000 C   0  0  0  0  0  0  0  0  0  0  0  0
  179.6431  -71.4090    0.0000 O   0  0  0  0  0  0  0  0  0  0  0  0
  238.5515    8.2655    0.0000 N   0  0  0  0  0  0  0  0  0  0  0  0
  266.3480    6.8407    0.0000 C   0  0  0  0  0  0  0  0  0  0  0  0
  284.9956  -13.8218    0.0000 N   0  0  0  0  0  0  0  0  0  0  0  0
  312.3567   -8.7183    0.0000 C   0  0  0  0  0  0  0  0  0  0  0  0
  324.3103   16.4171    0.0000 O   0  0  0  0  0  0  0  0  0  0  0  0
  325.6656  -33.1632    0.0000 N   0  0  0  0  0  0  0  0  0  0  0  0
 -272.0795 -115.3992    0.0000 C   0  0  0  0  0  0  0  0  0  0  0  0
 -297.2510 -103.5218    0.0000 N   0  0  0  0  0  0  0  0  0  0  0  0
 -308.3141  -77.9820    0.0000 C   0  0  0  0  0  0  0  0  0  0  0  0
 -335.4790  -71.9202    0.0000 O   0  0  0  0  0  0  0  0  0  0  0  0
 -270.8767   14.6708    0.0000 N   0  0  0  0  0  0  0  0  0  0  0  0
 -250.2141   33.3184    0.0000 C   0  0  0  0  0  0  0  0  0  0  0  0
 -222.4176   31.8936    0.0000 N   0  0  0  0  0  0  0  0  0  0  0  0
 -204.9265   53.5440    0.0000 C   0  0  0  0  0  0  0  0  0  0  0  0
 -212.1611   80.4204    0.0000 O   0  0  0  0  0  0  0  0  0  0  0  0
 -171.1380   45.6970    0.0000 N   0  0  0  0  0  0  0  0  0  0  0  0
 -147.8127   60.8827    0.0000 C   0  0  0  0  0  0  0  0  0  0  0  0
 -120.5813   55.1272    0.0000 N   0  0  0  0  0  0  0  0  0  0  0  0
  -99.9187   73.7748    0.0000 C   0  0  0  0  0  0  0  0  0  0  0  0
 -102.8598  101.4520    0.0000 O   0  0  0  0  0  0  0  0  0  0  0  0
  -67.7737   60.7387    0.0000 N   0  0  0  0  0  0  0  0  0  0  0  0
  -42.3600   72.0886    0.0000 C   0  0  0  0  0  0  0  0  0  0  0  0
  -16.3642   62.1439    0.0000 N   0  0  0  0  0  0  0  0  0  0  0  0
    6.9611   77.3297    0.0000 C   0  0  0  0  0  0  0  0  0  0  0  0
    8.3859  105.1262    0.0000 O   0  0  0  0  0  0  0  0  0  0  0  0
   36.6710   59.4255    0.0000 N   0  0  0  0  0  0  0  0  0  0  0  0
   63.5474   66.6600    0.0000 C   0  0  0  0  0  0  0  0  0  0  0  0
   87.6674   52.7712    0.0000 N   0  0  0  0  0  0  0  0  0  0  0  0
  113.0811   64.1211    0.0000 C   0  0  0  0  0  0  0  0  0  0  0  0
  118.8367   91.3525    0.0000 O   0  0  0  0  0  0  0  0  0  0  0  0
  139.6244   41.7897    0.0000 N   0  0  0  0  0  0  0  0  0  0  0  0
  167.3016   44.7308    0.0000 C   0  0  0  0  0  0  0  0  0  0  0  0
  188.9520   27.2397    0.0000 N   0  0  0  0  0  0  0  0  0  0  0  0
  215.8284   34.4743    0.0000 C   0  0  0  0  0  0  0  0  0  0  0  0
  225.7730   60.4701    0.0000 O   0  0  0  0  0  0  0  0  0  0  0  0
  1  2  1  0
  2  3  1  0
  3  4  1  0
  4  5  1  0
  5  6  1  0
  6  7  2  0
  5  8  1  0
  8  9  1  0
  9 10  1  0
 10 11  1  0
 11 12  1  0
 12 13  1  0
 13 14  2  0
 12 15  1  0
 15 16  1  0
 16 17  1  0
 17 18  1  0
 18 19  1  0
 19 20  1  0
 20 21  2  0
 19 22  1  0
 22 23  1  0
 23 24  1  0
 24 25  1  0
 25 26  1  0
 26 27  1  0
 27 28  2  0
 26 29  1  0
 29 30  1  0
 30 31  1  0
 31 32  1  0
 32 33  1  0
 33 34  1  0
 34 35  2  0
 33 36  1  0
 36 37  1  0
 37 38  1  0
 38 39  1  0
 39 40  1  0
 40 41  1  0
 41 42  2  0
 40 43  1  0
 43 44  1  0
 44 45  1  0
 45 46  1  0
 46 47  1  0
 47 48  1  0
 48 49  2  0
 46 50  1  0
 50 51  1  0
 51 52  1  0
 52 53  1  0
 53 54  2  0
 53 55  1  0
 55 56  1  0
 56 57  1  0
 57 58  1  0
 58 59  2  0
 58 60  1  0
 60 61  1  0
 61 62  1  0
 62 63  1  0
 63 64  2  0
 63 65  1  0
 65 66  1  0
 66 67  1  0
 67 68  1  0
 68 69  2  0
 68 70  1  0
 70 71  1  0
 71 72  1  0
 72 73  1  0
 73 74  2  0
 73 75  1  0
 75 76  1  0
 76 77  1  0
 77 78  1  0
 78 79  2  0
 78 80  1  0
 80 81  1  0
 81 82  1  0
 82 83  1  0
 83 84  2  0
 47  1  1  0
 83 50  1  0
  6  2  1  0
 65 18  1  0
 52  3  1  0
 55  4  1  0
 13  9  1  0
 27 23  1  0
 34 30  1  0
 41 37  1  0
 48 44  1  0
 57 10  1  0
 60 11  1  0
 20 16  1  0
 67 24  1  0
 62 17  1  0
 70 25  1  0
 72 31  1  0
 75 32  1  0
 77 38  1  0
 80 39  1  0
 82 45  1  0
M  END
